
This summary file was generated by TurbSim on 10-Jan-2023 at 17:43:10.


ERROR:  ReadInputFile:Invalid logical input for file "C:\Users\emanu\Desktop\Tesi_Magistrale\simu_openf_controller\SRWT_50kWUnifi\Test_Cases\IF_files\TurbSim\step_wind_speed.inp" occurred while trying to read Echo.

ABORTING PROGRAM.
