
This summary file was generated by TurbSim on 26-Jan-2023 at 01:38:07.


Runtime Options:

   2318573  Random seed #1
    RANLUX  Type of random number generator
         F  Output binary HH turbulence parameters?
         F  Output formatted turbulence parameters?
         F  Output AeroDyn HH files?
         T  Output AeroDyn FF files?
         F  Output BLADED FF files?
         F  Output tower data?
         F  Output formatted FF files?
         F  Output coherent turbulence time step file?
         T  Clockwise rotation when looking downwind?
 0 -  NONE  IEC turbulence models scaled to exact specified standard deviation


Turbine/Model Specifications:

        30  Vertical grid-point matrix dimension
        30  Horizontal grid-point matrix dimension
     0.050  Time step [seconds]
   100.000  Analysis time [seconds]
   100.000  Usable output time [seconds]
    23.000  Hub height [m]
    45.000  Grid height [m]
    45.000  Grid width [m]
     0.000  Vertical flow angle [degrees]
     0.000  Horizontal flow angle [degrees]


Meteorological Boundary Conditions:

    IECKAI  IEC Kaimal spectral model
         1  IEC standard: IEC 61400-1 Ed. 3: 2005
         A  IEC turbulence characteristic
       NTM  IEC Normal Turbulence Model
       N/A  IEC Extreme Turbulence Model (ETM) "c" parameter [m/s]
       PL   Wind profile type
    23.000  Reference height [m]
    12.000  Reference wind speed [m/s]
       N/A  Jet height [m]
     0.200  Power law exponent
     0.030  Surface roughness length [m]


Non-IEC Meteorological Boundary Conditions:

       N/A  Site latitude [degrees]
       N/A  Gradient Richardson number
       N/A  Friction or shear velocity [m/s]
       N/A  Mixing layer depth [m]
       N/A  Mean hub u'w' Reynolds stress
       N/A  Mean hub u'v' Reynolds stress
       N/A  Mean hub v'w' Reynolds stress


Spatial Coherence Models:

       IEC  u-component coherence model
      NONE  v-component coherence model
      NONE  w-component coherence model
(   12.000, 0.920E-03)  u-component coherence parameters
                   N/A  v-component coherence parameters
                   N/A  w-component coherence parameters
       N/A  Coherence exponent


You have requested that the following file(s) be generated:

   C:\Users\emanu\Desktop\Tesi_Magistrale\simu_openf_controller\SRWT_50kWUnifi\Test_Cases\IF_files\TurbSim\turbsim.bts (AeroDyn/TurbSim full-field wind file)


Turbulence Simulation Scaling Parameter Summary:

   Turbulence model used                            =  IEC Kaimal
   Turbulence characteristic                        =  A
   IEC turbulence type                              =  Normal Turbulence Model
   IEC standard                                     =  IEC 61400-1 Ed. 3: 2005
   Mean wind speed at hub height                    =   12.000 m/s
   Expected value of turbulence intensity at 15 m/s =   16.000%
   Characteristic value of standard deviation       =    2.336 m/s
   Turbulence scale                                 =   16.100 m
   u-component integral scale                       =  130.410 m
   Coherency scale                                  =  130.410 m
   Characteristic value of hub turbulence intensity =   19.467%
   Gradient Richardson number                       =    0.000

   Wind profile type                                =  Power law
   Power law exponent                               =    0.200
   Mean shear across rotor disk                     =    0.182 (m/s)/m
   Assumed rotor diameter                           =   45.000 m
   Surface roughness length                         =    0.030 m

   Nyquist frequency of turbulent wind field        =   10.000 Hz

   Number of time steps in the FFT                  =     2000
   Number of time steps output                      =     2000
   Number of points simulated                       =      901


Mean Flow Angles:

   Vertical   =   0.0 degrees
   Horizontal =   0.0 degrees

Mean Wind Speed Profile:

   Height    Wind Speed   Horizontal Angle  Vertical Angle  U-comp (X)   V-comp (Y)   W-comp (Z)
     (m)        (m/s)         (degrees)       (degrees)       (m/s)        (m/s)        (m/s)   
   ------    ----------   ----------------  --------------  ----------   ----------   ----------
     45.5       13.75            0.00            0.00         13.75         0.00         0.00
     43.9       13.66            0.00            0.00         13.66         0.00         0.00
     42.4       13.56            0.00            0.00         13.56         0.00         0.00
     40.8       13.46            0.00            0.00         13.46         0.00         0.00
     39.3       13.36            0.00            0.00         13.36         0.00         0.00
     37.7       13.25            0.00            0.00         13.25         0.00         0.00
     36.2       13.14            0.00            0.00         13.14         0.00         0.00
     34.6       13.02            0.00            0.00         13.02         0.00         0.00
     33.1       12.91            0.00            0.00         12.91         0.00         0.00
     31.5       12.78            0.00            0.00         12.78         0.00         0.00
     30.0       12.65            0.00            0.00         12.65         0.00         0.00
     28.4       12.52            0.00            0.00         12.52         0.00         0.00
     26.9       12.38            0.00            0.00         12.38         0.00         0.00
     25.3       12.23            0.00            0.00         12.23         0.00         0.00
     23.8       12.08            0.00            0.00         12.08         0.00         0.00
     23.0       12.00            0.00            0.00         12.00         0.00         0.00
     22.2       11.92            0.00            0.00         11.92         0.00         0.00
     20.7       11.75            0.00            0.00         11.75         0.00         0.00
     19.1       11.56            0.00            0.00         11.56         0.00         0.00
     17.6       11.37            0.00            0.00         11.37         0.00         0.00
     16.0       11.16            0.00            0.00         11.16         0.00         0.00
     14.5       10.94            0.00            0.00         10.94         0.00         0.00
     12.9       10.69            0.00            0.00         10.69         0.00         0.00
     11.4       10.42            0.00            0.00         10.42         0.00         0.00
      9.8       10.12            0.00            0.00         10.12         0.00         0.00
      8.3        9.78            0.00            0.00          9.78         0.00         0.00
      6.7        9.38            0.00            0.00          9.38         0.00         0.00
      5.2        8.90            0.00            0.00          8.90         0.00         0.00
      3.6        8.28            0.00            0.00          8.28         0.00         0.00
      2.1        7.40            0.00            0.00          7.40         0.00         0.00
      0.5        5.58            0.00            0.00          5.58         0.00         0.00


Harvested Random Seeds after Generation of the Random Numbers:

     25115375 K 1
            0 K 2


Hub-Height Simulated Turbulence Statistical Summary:

   Type of Wind        Min (m/s)   Mean (m/s)    Max (m/s)  Sigma (m/s)       TI (%)
   ----------------    ---------   ----------    ---------  -----------       ------
   Longitudinal (u)         7.67        12.00        17.02        1.811       15.091
   Lateral (v)             -4.51         0.00         4.91        1.777       14.809
   Vertical (w)            -4.95         0.00         3.19        1.116        9.298
   U component              7.67        12.00        17.02        1.811       15.091
   V component             -4.51         0.00         4.91        1.777       14.809
   W component             -4.95         0.00         3.19        1.116        9.298
   Horizontal (U&V)         7.72        12.13        17.15        1.802       14.854
   Total                    7.87        12.19        17.16        1.791       14.695

                       Min Reynolds     Mean Reynolds    Max Reynolds    Correlation
   Product             Stress (m/s)^2   Stress (m/s)^2   Stress (m/s)^2  Coefficient
   ----------------    --------------   --------------   --------------  -----------
   u'w'                     -9.172             0.354            15.039         0.175
   u'v'                    -12.517             0.051            14.182         0.016
   v'w'                    -10.311            -0.033            12.893        -0.016


   Friction Velocity (Ustar)  =      0.595 m/s
   Maximum Instantaneous TKE  =     20.265 (m/s)^2
   Maximum Instantaneous CTKE =     10.663 (m/s)^2


Grid Point Variance Summary:

   Y-coord  -22.50  -20.95  -19.40  -17.84  -16.29  -14.74  -13.19  -11.64  -10.09   -8.53   -6.98   -5.43   -3.88   -2.33   -0.78    0.78    2.33    3.88    5.43    6.98    8.53   10.09   11.64   13.19   14.74   16.29   17.84   19.40   20.95   22.50

   Height   Standard deviation at grid points for the u component:
    45.50    1.868   1.997   2.010   1.709   1.762   2.036   1.926   1.851   2.031   1.984   1.779   1.893   1.891   1.895   2.011   1.930   2.058   2.032   2.111   2.265   2.187   2.314   2.434   2.353   2.429   2.169   2.236   2.134   1.985   1.916
    43.95    2.041   2.083   1.970   1.690   1.855   1.766   1.769   1.783   1.881   1.975   1.765   1.767   1.901   1.985   1.881   1.851   1.966   2.163   2.137   2.120   2.184   2.275   2.358   2.255   2.251   2.315   2.104   2.111   2.158   2.169
    42.40    1.970   1.958   1.923   1.750   1.846   1.845   1.811   1.812   1.983   1.899   1.860   1.730   1.675   1.972   1.843   1.905   2.130   2.263   2.086   2.170   2.210   2.347   2.311   2.067   2.217   2.174   2.039   2.014   2.093   2.104
    40.84    2.070   1.875   1.801   1.837   1.755   1.927   1.781   1.829   1.929   1.929   1.898   1.583   1.697   1.845   1.938   2.226   2.281   2.254   2.257   2.194   2.315   2.254   2.135   2.055   2.043   2.051   2.244   2.089   2.162   2.060
    39.29    2.086   1.893   1.790   1.695   1.738   1.884   1.804   1.845   1.903   1.725   1.612   1.623   1.787   1.870   1.980   2.155   2.272   2.337   2.333   2.281   2.373   2.198   1.949   1.878   1.931   2.022   2.159   2.322   2.205   2.232
    37.74    2.023   1.974   1.738   1.723   1.917   2.000   1.842   1.761   1.862   1.767   1.753   1.593   1.630   1.727   1.843   2.064   2.241   2.469   2.460   2.206   2.300   2.127   2.057   1.913   1.948   2.157   2.203   2.262   2.240   2.246
    36.19    1.947   1.847   1.740   1.656   1.740   1.908   1.815   1.701   1.631   1.805   1.830   1.829   1.705   1.790   1.825   1.950   2.157   2.233   2.279   2.230   2.148   2.174   2.133   1.966   1.977   2.085   2.240   2.167   2.158   2.211
    34.64    1.810   1.772   1.670   1.675   1.720   1.817   1.797   1.754   1.756   1.943   1.837   2.009   1.842   1.929   1.931   1.824   2.018   2.095   2.181   2.217   2.039   2.123   2.035   2.205   2.254   2.219   2.079   2.124   1.979   2.056
    33.09    1.738   1.802   1.617   1.682   1.783   1.814   1.764   1.765   1.887   1.830   1.862   1.869   1.975   1.826   2.008   2.035   1.836   1.933   2.143   2.047   2.133   2.023   2.069   2.142   2.210   2.232   2.042   1.949   1.929   1.927
    31.53    1.874   1.927   1.815   1.722   2.003   1.884   1.831   1.863   1.781   1.899   1.833   1.896   2.094   2.147   2.144   1.934   1.898   1.892   1.991   2.062   1.976   1.979   1.978   2.128   2.089   2.127   1.986   1.947   1.943   2.046
    29.98    1.928   2.040   1.846   1.960   1.923   2.043   1.815   1.896   1.718   1.687   1.811   1.989   2.120   2.149   2.125   1.897   1.724   1.833   1.872   1.921   1.901   1.848   2.108   2.108   2.128   2.038   2.074   1.823   1.950   2.071
    28.43    2.091   2.049   2.052   2.053   1.918   1.974   1.974   2.054   1.819   1.870   2.049   2.076   2.216   2.213   2.025   1.812   1.709   1.631   1.682   1.879   1.968   2.037   1.912   1.926   1.864   1.830   1.967   1.983   1.769   2.024
    26.88    1.950   1.963   2.195   2.167   1.987   2.055   2.029   2.095   2.033   1.961   2.031   2.171   2.186   2.131   1.894   1.918   1.990   1.766   1.829   1.815   1.898   1.868   1.828   1.786   1.917   1.861   1.945   1.857   1.913   2.062
    25.33    1.807   2.006   2.199   2.079   2.038   2.062   1.999   2.044   2.119   1.971   2.105   2.102   2.025   1.912   1.900   1.941   1.855   1.787   1.849   1.802   1.885   1.752   1.898   1.945   1.916   2.093   2.030   2.044   1.937   2.087
    23.78    1.891   1.950   1.960   2.124   2.088   2.091   2.065   1.954   2.224   2.070   2.071   2.037   2.127   1.986   1.818   1.831   1.900   1.722   1.952   1.820   1.978   1.937   1.803   1.997   2.074   2.079   1.976   2.247   2.032   2.160
    22.22    1.761   1.787   1.949   2.036   2.063   1.843   1.950   2.055   2.081   2.182   2.156   2.114   1.984   1.963   1.818   1.770   1.774   1.850   1.932   1.845   1.896   1.957   1.833   2.074   2.192   2.281   2.197   2.265   2.234   2.085
    20.67    1.835   1.885   1.856   1.950   1.945   1.912   1.927   1.938   2.134   2.174   2.156   2.068   2.089   2.097   1.877   1.879   1.958   1.909   1.989   2.123   2.097   2.191   2.055   2.043   2.109   2.290   2.183   2.161   2.133   2.013
    19.12    1.903   1.940   1.828   1.853   1.931   2.000   1.938   1.987   2.012   2.117   2.128   2.007   2.002   1.961   1.980   1.860   1.951   1.941   1.929   2.074   2.074   2.262   2.148   2.219   2.153   2.159   2.256   2.216   2.154   2.019
    17.57    1.975   1.849   1.767   1.856   1.902   1.830   1.905   2.009   1.924   2.036   2.034   1.976   2.063   1.981   2.166   2.109   2.114   1.895   1.971   2.068   2.136   2.267   2.133   2.202   2.219   2.147   2.265   2.177   2.149   2.013
    16.02    2.108   1.976   1.931   1.886   1.917   1.861   2.006   1.959   1.818   1.914   1.977   2.060   1.930   1.964   1.936   2.144   2.061   2.002   2.021   2.019   2.006   2.219   2.239   2.200   2.110   2.288   2.126   2.057   1.909   1.948
    14.47    2.223   2.153   2.081   2.014   2.038   1.863   1.996   2.056   1.962   1.857   1.946   1.876   1.875   1.934   1.839   2.018   1.963   1.976   1.920   1.997   2.036   2.155   2.192   2.222   2.180   2.340   2.222   1.935   1.931   1.919
    12.91    2.375   2.172   1.998   2.081   2.080   1.871   1.963   1.766   1.789   1.851   1.765   1.711   1.749   1.809   1.847   1.978   1.870   1.800   2.106   2.007   2.108   2.157   2.201   2.217   2.293   2.369   2.004   2.081   1.920   1.775
    11.36    2.229   2.271   2.235   2.172   2.150   2.023   1.941   1.806   1.836   1.856   1.830   1.698   1.746   1.792   1.905   1.930   1.920   1.929   1.994   2.109   2.117   2.056   2.100   2.254   2.217   2.337   2.191   2.014   1.962   1.966
     9.81    2.207   2.411   2.269   2.187   2.182   2.109   1.946   1.923   1.983   2.048   1.956   1.938   1.978   1.931   1.979   2.011   1.964   1.947   1.993   2.060   2.005   2.041   2.155   2.008   2.214   2.251   2.057   1.998   1.865   1.899
     8.26    2.341   2.333   2.214   2.093   1.978   2.119   2.006   1.928   1.936   2.078   2.113   2.019   2.019   1.935   1.948   2.024   2.012   1.846   1.863   1.997   2.008   2.009   2.010   2.146   2.209   2.236   2.084   2.065   2.059   1.991
     6.71    2.272   2.241   2.064   2.106   1.972   1.900   1.982   1.866   2.046   2.248   2.124   2.028   1.902   1.953   1.903   1.836   1.814   1.873   1.946   2.121   2.049   2.082   1.999   2.078   2.215   2.173   2.030   1.978   2.110   2.064
     5.16    2.175   2.011   1.973   1.837   1.846   1.786   1.855   1.971   1.980   2.159   2.166   1.904   1.854   1.776   1.831   1.722   1.715   1.803   1.982   2.128   2.157   2.062   1.938   2.051   2.168   2.148   2.135   1.976   1.942   2.060
     3.60    2.241   1.998   1.890   1.976   1.908   1.995   2.012   1.990   2.053   2.090   2.198   1.875   1.886   1.833   1.818   1.768   1.715   1.751   1.836   1.987   2.207   2.107   2.150   2.008   2.003   2.020   1.993   2.024   2.027   2.131
     2.05    2.120   2.108   1.975   1.968   1.937   2.025   1.972   2.050   2.036   2.014   2.010   1.910   1.844   1.843   1.743   1.963   1.968   1.877   1.838   1.879   2.050   2.101   2.000   1.834   1.877   1.862   1.838   1.786   1.889   1.957
     0.50    2.098   2.020   1.925   1.824   1.905   1.962   1.987   2.036   1.962   1.942   1.916   1.854   1.906   1.852   1.906   1.877   1.931   1.797   1.680   1.828   2.007   2.088   1.918   1.922   1.849   1.893   1.703   1.714   1.752   1.912

   Height   Standard deviation at grid points for the v component:
    45.50    1.777   1.777   1.777   1.777   1.777   1.777   1.777   1.777   1.777   1.777   1.777   1.777   1.777   1.777   1.777   1.777   1.777   1.777   1.777   1.777   1.777   1.777   1.777   1.777   1.777   1.777   1.777   1.777   1.777   1.777
    43.95    1.777   1.777   1.777   1.777   1.777   1.777   1.777   1.777   1.777   1.777   1.777   1.777   1.777   1.777   1.777   1.777   1.777   1.777   1.777   1.777   1.777   1.777   1.777   1.777   1.777   1.777   1.777   1.777   1.777   1.777
    42.40    1.777   1.777   1.777   1.777   1.777   1.777   1.777   1.777   1.777   1.777   1.777   1.777   1.777   1.777   1.777   1.777   1.777   1.777   1.777   1.777   1.777   1.777   1.777   1.777   1.777   1.777   1.777   1.777   1.777   1.777
    40.84    1.777   1.777   1.777   1.777   1.777   1.777   1.777   1.777   1.777   1.777   1.777   1.777   1.777   1.777   1.777   1.777   1.777   1.777   1.777   1.777   1.777   1.777   1.777   1.777   1.777   1.777   1.777   1.777   1.777   1.777
    39.29    1.777   1.777   1.777   1.777   1.777   1.777   1.777   1.777   1.777   1.777   1.777   1.777   1.777   1.777   1.777   1.777   1.777   1.777   1.777   1.777   1.777   1.777   1.777   1.777   1.777   1.777   1.777   1.777   1.777   1.777
    37.74    1.777   1.777   1.777   1.777   1.777   1.777   1.777   1.777   1.777   1.777   1.777   1.777   1.777   1.777   1.777   1.777   1.777   1.777   1.777   1.777   1.777   1.777   1.777   1.777   1.777   1.777   1.777   1.777   1.777   1.777
    36.19    1.777   1.777   1.777   1.777   1.777   1.777   1.777   1.777   1.777   1.777   1.777   1.777   1.777   1.777   1.777   1.777   1.777   1.777   1.777   1.777   1.777   1.777   1.777   1.777   1.777   1.777   1.777   1.777   1.777   1.777
    34.64    1.777   1.777   1.777   1.777   1.777   1.777   1.777   1.777   1.777   1.777   1.777   1.777   1.777   1.777   1.777   1.777   1.777   1.777   1.777   1.777   1.777   1.777   1.777   1.777   1.777   1.777   1.777   1.777   1.777   1.777
    33.09    1.777   1.777   1.777   1.777   1.777   1.777   1.777   1.777   1.777   1.777   1.777   1.777   1.777   1.777   1.777   1.777   1.777   1.777   1.777   1.777   1.777   1.777   1.777   1.777   1.777   1.777   1.777   1.777   1.777   1.777
    31.53    1.777   1.777   1.777   1.777   1.777   1.777   1.777   1.777   1.777   1.777   1.777   1.777   1.777   1.777   1.777   1.777   1.777   1.777   1.777   1.777   1.777   1.777   1.777   1.777   1.777   1.777   1.777   1.777   1.777   1.777
    29.98    1.777   1.777   1.777   1.777   1.777   1.777   1.777   1.777   1.777   1.777   1.777   1.777   1.777   1.777   1.777   1.777   1.777   1.777   1.777   1.777   1.777   1.777   1.777   1.777   1.777   1.777   1.777   1.777   1.777   1.777
    28.43    1.777   1.777   1.777   1.777   1.777   1.777   1.777   1.777   1.777   1.777   1.777   1.777   1.777   1.777   1.777   1.777   1.777   1.777   1.777   1.777   1.777   1.777   1.777   1.777   1.777   1.777   1.777   1.777   1.777   1.777
    26.88    1.777   1.777   1.777   1.777   1.777   1.777   1.777   1.777   1.777   1.777   1.777   1.777   1.777   1.777   1.777   1.777   1.777   1.777   1.777   1.777   1.777   1.777   1.777   1.777   1.777   1.777   1.777   1.777   1.777   1.777
    25.33    1.777   1.777   1.777   1.777   1.777   1.777   1.777   1.777   1.777   1.777   1.777   1.777   1.777   1.777   1.777   1.777   1.777   1.777   1.777   1.777   1.777   1.777   1.777   1.777   1.777   1.777   1.777   1.777   1.777   1.777
    23.78    1.777   1.777   1.777   1.777   1.777   1.777   1.777   1.777   1.777   1.777   1.777   1.777   1.777   1.777   1.777   1.777   1.777   1.777   1.777   1.777   1.777   1.777   1.777   1.777   1.777   1.777   1.777   1.777   1.777   1.777
    22.22    1.777   1.777   1.777   1.777   1.777   1.777   1.777   1.777   1.777   1.777   1.777   1.777   1.777   1.777   1.777   1.777   1.777   1.777   1.777   1.777   1.777   1.777   1.777   1.777   1.777   1.777   1.777   1.777   1.777   1.777
    20.67    1.777   1.777   1.777   1.777   1.777   1.777   1.777   1.777   1.777   1.777   1.777   1.777   1.777   1.777   1.777   1.777   1.777   1.777   1.777   1.777   1.777   1.777   1.777   1.777   1.777   1.777   1.777   1.777   1.777   1.777
    19.12    1.777   1.777   1.777   1.777   1.777   1.777   1.777   1.777   1.777   1.777   1.777   1.777   1.777   1.777   1.777   1.777   1.777   1.777   1.777   1.777   1.777   1.777   1.777   1.777   1.777   1.777   1.777   1.777   1.777   1.777
    17.57    1.777   1.777   1.777   1.777   1.777   1.777   1.777   1.777   1.777   1.777   1.777   1.777   1.777   1.777   1.777   1.777   1.777   1.777   1.777   1.777   1.777   1.777   1.777   1.777   1.777   1.777   1.777   1.777   1.777   1.777
    16.02    1.777   1.777   1.777   1.777   1.777   1.777   1.777   1.777   1.777   1.777   1.777   1.777   1.777   1.777   1.777   1.777   1.777   1.777   1.777   1.777   1.777   1.777   1.777   1.777   1.777   1.777   1.777   1.777   1.777   1.777
    14.47    1.777   1.777   1.777   1.777   1.777   1.777   1.777   1.777   1.777   1.777   1.777   1.777   1.777   1.777   1.777   1.777   1.777   1.777   1.777   1.777   1.777   1.777   1.777   1.777   1.777   1.777   1.777   1.777   1.777   1.777
    12.91    1.777   1.777   1.777   1.777   1.777   1.777   1.777   1.777   1.777   1.777   1.777   1.777   1.777   1.777   1.777   1.777   1.777   1.777   1.777   1.777   1.777   1.777   1.777   1.777   1.777   1.777   1.777   1.777   1.777   1.777
    11.36    1.777   1.777   1.777   1.777   1.777   1.777   1.777   1.777   1.777   1.777   1.777   1.777   1.777   1.777   1.777   1.777   1.777   1.777   1.777   1.777   1.777   1.777   1.777   1.777   1.777   1.777   1.777   1.777   1.777   1.777
     9.81    1.777   1.777   1.777   1.777   1.777   1.777   1.777   1.777   1.777   1.777   1.777   1.777   1.777   1.777   1.777   1.777   1.777   1.777   1.777   1.777   1.777   1.777   1.777   1.777   1.777   1.777   1.777   1.777   1.777   1.777
     8.26    1.777   1.777   1.777   1.777   1.777   1.777   1.777   1.777   1.777   1.777   1.777   1.777   1.777   1.777   1.777   1.777   1.777   1.777   1.777   1.777   1.777   1.777   1.777   1.777   1.777   1.777   1.777   1.777   1.777   1.777
     6.71    1.777   1.777   1.777   1.777   1.777   1.777   1.777   1.777   1.777   1.777   1.777   1.777   1.777   1.777   1.777   1.777   1.777   1.777   1.777   1.777   1.777   1.777   1.777   1.777   1.777   1.777   1.777   1.777   1.777   1.777
     5.16    1.777   1.777   1.777   1.777   1.777   1.777   1.777   1.777   1.777   1.777   1.777   1.777   1.777   1.777   1.777   1.777   1.777   1.777   1.777   1.777   1.777   1.777   1.777   1.777   1.777   1.777   1.777   1.777   1.777   1.777
     3.60    1.777   1.777   1.777   1.777   1.777   1.777   1.777   1.777   1.777   1.777   1.777   1.777   1.777   1.777   1.777   1.777   1.777   1.777   1.777   1.777   1.777   1.777   1.777   1.777   1.777   1.777   1.777   1.777   1.777   1.777
     2.05    1.777   1.777   1.777   1.777   1.777   1.777   1.777   1.777   1.777   1.777   1.777   1.777   1.777   1.777   1.777   1.777   1.777   1.777   1.777   1.777   1.777   1.777   1.777   1.777   1.777   1.777   1.777   1.777   1.777   1.777
     0.50    1.777   1.777   1.777   1.777   1.777   1.777   1.777   1.777   1.777   1.777   1.777   1.777   1.777   1.777   1.777   1.777   1.777   1.777   1.777   1.777   1.777   1.777   1.777   1.777   1.777   1.777   1.777   1.777   1.777   1.777

   Height   Standard deviation at grid points for the w component:
    45.50    1.116   1.116   1.116   1.116   1.116   1.116   1.116   1.116   1.116   1.116   1.116   1.116   1.116   1.116   1.116   1.116   1.116   1.116   1.116   1.116   1.116   1.116   1.116   1.116   1.116   1.116   1.116   1.116   1.116   1.116
    43.95    1.116   1.116   1.116   1.116   1.116   1.116   1.116   1.116   1.116   1.116   1.116   1.116   1.116   1.116   1.116   1.116   1.116   1.116   1.116   1.116   1.116   1.116   1.116   1.116   1.116   1.116   1.116   1.116   1.116   1.116
    42.40    1.116   1.116   1.116   1.116   1.116   1.116   1.116   1.116   1.116   1.116   1.116   1.116   1.116   1.116   1.116   1.116   1.116   1.116   1.116   1.116   1.116   1.116   1.116   1.116   1.116   1.116   1.116   1.116   1.116   1.116
    40.84    1.116   1.116   1.116   1.116   1.116   1.116   1.116   1.116   1.116   1.116   1.116   1.116   1.116   1.116   1.116   1.116   1.116   1.116   1.116   1.116   1.116   1.116   1.116   1.116   1.116   1.116   1.116   1.116   1.116   1.116
    39.29    1.116   1.116   1.116   1.116   1.116   1.116   1.116   1.116   1.116   1.116   1.116   1.116   1.116   1.116   1.116   1.116   1.116   1.116   1.116   1.116   1.116   1.116   1.116   1.116   1.116   1.116   1.116   1.116   1.116   1.116
    37.74    1.116   1.116   1.116   1.116   1.116   1.116   1.116   1.116   1.116   1.116   1.116   1.116   1.116   1.116   1.116   1.116   1.116   1.116   1.116   1.116   1.116   1.116   1.116   1.116   1.116   1.116   1.116   1.116   1.116   1.116
    36.19    1.116   1.116   1.116   1.116   1.116   1.116   1.116   1.116   1.116   1.116   1.116   1.116   1.116   1.116   1.116   1.116   1.116   1.116   1.116   1.116   1.116   1.116   1.116   1.116   1.116   1.116   1.116   1.116   1.116   1.116
    34.64    1.116   1.116   1.116   1.116   1.116   1.116   1.116   1.116   1.116   1.116   1.116   1.116   1.116   1.116   1.116   1.116   1.116   1.116   1.116   1.116   1.116   1.116   1.116   1.116   1.116   1.116   1.116   1.116   1.116   1.116
    33.09    1.116   1.116   1.116   1.116   1.116   1.116   1.116   1.116   1.116   1.116   1.116   1.116   1.116   1.116   1.116   1.116   1.116   1.116   1.116   1.116   1.116   1.116   1.116   1.116   1.116   1.116   1.116   1.116   1.116   1.116
    31.53    1.116   1.116   1.116   1.116   1.116   1.116   1.116   1.116   1.116   1.116   1.116   1.116   1.116   1.116   1.116   1.116   1.116   1.116   1.116   1.116   1.116   1.116   1.116   1.116   1.116   1.116   1.116   1.116   1.116   1.116
    29.98    1.116   1.116   1.116   1.116   1.116   1.116   1.116   1.116   1.116   1.116   1.116   1.116   1.116   1.116   1.116   1.116   1.116   1.116   1.116   1.116   1.116   1.116   1.116   1.116   1.116   1.116   1.116   1.116   1.116   1.116
    28.43    1.116   1.116   1.116   1.116   1.116   1.116   1.116   1.116   1.116   1.116   1.116   1.116   1.116   1.116   1.116   1.116   1.116   1.116   1.116   1.116   1.116   1.116   1.116   1.116   1.116   1.116   1.116   1.116   1.116   1.116
    26.88    1.116   1.116   1.116   1.116   1.116   1.116   1.116   1.116   1.116   1.116   1.116   1.116   1.116   1.116   1.116   1.116   1.116   1.116   1.116   1.116   1.116   1.116   1.116   1.116   1.116   1.116   1.116   1.116   1.116   1.116
    25.33    1.116   1.116   1.116   1.116   1.116   1.116   1.116   1.116   1.116   1.116   1.116   1.116   1.116   1.116   1.116   1.116   1.116   1.116   1.116   1.116   1.116   1.116   1.116   1.116   1.116   1.116   1.116   1.116   1.116   1.116
    23.78    1.116   1.116   1.116   1.116   1.116   1.116   1.116   1.116   1.116   1.116   1.116   1.116   1.116   1.116   1.116   1.116   1.116   1.116   1.116   1.116   1.116   1.116   1.116   1.116   1.116   1.116   1.116   1.116   1.116   1.116
    22.22    1.116   1.116   1.116   1.116   1.116   1.116   1.116   1.116   1.116   1.116   1.116   1.116   1.116   1.116   1.116   1.116   1.116   1.116   1.116   1.116   1.116   1.116   1.116   1.116   1.116   1.116   1.116   1.116   1.116   1.116
    20.67    1.116   1.116   1.116   1.116   1.116   1.116   1.116   1.116   1.116   1.116   1.116   1.116   1.116   1.116   1.116   1.116   1.116   1.116   1.116   1.116   1.116   1.116   1.116   1.116   1.116   1.116   1.116   1.116   1.116   1.116
    19.12    1.116   1.116   1.116   1.116   1.116   1.116   1.116   1.116   1.116   1.116   1.116   1.116   1.116   1.116   1.116   1.116   1.116   1.116   1.116   1.116   1.116   1.116   1.116   1.116   1.116   1.116   1.116   1.116   1.116   1.116
    17.57    1.116   1.116   1.116   1.116   1.116   1.116   1.116   1.116   1.116   1.116   1.116   1.116   1.116   1.116   1.116   1.116   1.116   1.116   1.116   1.116   1.116   1.116   1.116   1.116   1.116   1.116   1.116   1.116   1.116   1.116
    16.02    1.116   1.116   1.116   1.116   1.116   1.116   1.116   1.116   1.116   1.116   1.116   1.116   1.116   1.116   1.116   1.116   1.116   1.116   1.116   1.116   1.116   1.116   1.116   1.116   1.116   1.116   1.116   1.116   1.116   1.116
    14.47    1.116   1.116   1.116   1.116   1.116   1.116   1.116   1.116   1.116   1.116   1.116   1.116   1.116   1.116   1.116   1.116   1.116   1.116   1.116   1.116   1.116   1.116   1.116   1.116   1.116   1.116   1.116   1.116   1.116   1.116
    12.91    1.116   1.116   1.116   1.116   1.116   1.116   1.116   1.116   1.116   1.116   1.116   1.116   1.116   1.116   1.116   1.116   1.116   1.116   1.116   1.116   1.116   1.116   1.116   1.116   1.116   1.116   1.116   1.116   1.116   1.116
    11.36    1.116   1.116   1.116   1.116   1.116   1.116   1.116   1.116   1.116   1.116   1.116   1.116   1.116   1.116   1.116   1.116   1.116   1.116   1.116   1.116   1.116   1.116   1.116   1.116   1.116   1.116   1.116   1.116   1.116   1.116
     9.81    1.116   1.116   1.116   1.116   1.116   1.116   1.116   1.116   1.116   1.116   1.116   1.116   1.116   1.116   1.116   1.116   1.116   1.116   1.116   1.116   1.116   1.116   1.116   1.116   1.116   1.116   1.116   1.116   1.116   1.116
     8.26    1.116   1.116   1.116   1.116   1.116   1.116   1.116   1.116   1.116   1.116   1.116   1.116   1.116   1.116   1.116   1.116   1.116   1.116   1.116   1.116   1.116   1.116   1.116   1.116   1.116   1.116   1.116   1.116   1.116   1.116
     6.71    1.116   1.116   1.116   1.116   1.116   1.116   1.116   1.116   1.116   1.116   1.116   1.116   1.116   1.116   1.116   1.116   1.116   1.116   1.116   1.116   1.116   1.116   1.116   1.116   1.116   1.116   1.116   1.116   1.116   1.116
     5.16    1.116   1.116   1.116   1.116   1.116   1.116   1.116   1.116   1.116   1.116   1.116   1.116   1.116   1.116   1.116   1.116   1.116   1.116   1.116   1.116   1.116   1.116   1.116   1.116   1.116   1.116   1.116   1.116   1.116   1.116
     3.60    1.116   1.116   1.116   1.116   1.116   1.116   1.116   1.116   1.116   1.116   1.116   1.116   1.116   1.116   1.116   1.116   1.116   1.116   1.116   1.116   1.116   1.116   1.116   1.116   1.116   1.116   1.116   1.116   1.116   1.116
     2.05    1.116   1.116   1.116   1.116   1.116   1.116   1.116   1.116   1.116   1.116   1.116   1.116   1.116   1.116   1.116   1.116   1.116   1.116   1.116   1.116   1.116   1.116   1.116   1.116   1.116   1.116   1.116   1.116   1.116   1.116
     0.50    1.116   1.116   1.116   1.116   1.116   1.116   1.116   1.116   1.116   1.116   1.116   1.116   1.116   1.116   1.116   1.116   1.116   1.116   1.116   1.116   1.116   1.116   1.116   1.116   1.116   1.116   1.116   1.116   1.116   1.116

   Mean standard deviation across all grid points:
      u component:    1.993 m/s
      v component:    1.777 m/s
      w component:    1.116 m/s


U-component (X) statistics from the interpolated hub point:

   Mean =  11.9989 m/s
   TI   =  13.6522 %


Processing complete.  10.75 CPU seconds used.
